29

C         -2.40310        2.72748        0.00000
C          1.00514        3.36044        0.00000
C          1.83699        1.91039       -0.00000
H          1.26445        3.92115        0.87365
H          1.26509        3.92254       -0.87257
C          1.84854       -0.18413        0.00000
H          2.43348        2.07110        0.87365
H          1.75159        1.88738       -1.06634
C          0.67010       -2.03698       -0.00000
H          2.44216       -0.35514        0.87365
H          1.83202       -0.17938       -1.06986
C         -2.40709       -1.49515        0.92078
C         -3.46074        0.17566        0.92078
H         -3.76376        0.33194        1.93501
H         -4.19165       -0.03475        0.16819
H         -2.73389        2.84627       -1.01063
H         -2.76792        3.41155        0.73747
H         -3.81243        5.74796        0.21160
H          1.28854        5.71292        0.21160
H          4.75369       -0.29681        0.21160
H          3.34653       -2.87241        0.21160
H         -6.08149        0.71941        0.21160
H          5.63317        2.54160        0.21160
H         -2.98168       -2.16537        0.31617
H         -2.25042       -1.56137        1.97717
H          1.11803       -2.73388        0.67720
H          0.65855       -2.42740       -0.99616
H         -3.68427       -3.81192        0.24069
H          1.32412       -4.21019        0.24069
